  Processing Data Dictionary (Energy+.idd) File -- Complete
  Maximum number of Alpha Args=        4500
  Maximum number of Numeric Args=       21040
  Number of Object Definitions=         727
  Number of Section Definitions=           2
  Total Number of Alpha Fields=       18098
  Total Number of Numeric Fields=       39469
  Total Number of Fields=       57567
  Processing Input Data File (in.idf) -- Start
      1 !-Generator IDFEditor 1.44
      2 !-Option SortedOrder
      3 
      4 !-NOTE: All comments with '!-' are ignored by the IDFEditor and are generated automatically.
      5 !-      Use '!' comments if they need to be retained when using the IDFEditor.
      6 
      7 
      8 !-   ===========  ALL OBJECTS IN CLASS: VERSION ===========
      9 
     10 ! File generated by DesignBuilder - 2.2.5.004 2010-09-01 - ¿ÀÈÄ 9:21:35
     11 ! Source file: C:\Users\SUSCOM3\Desktop\Special Issue\Simulation\Yang_DB\Yangjae_final.skh
     12 Version,
     13     8.1;                     !- Version Identifier
     14 
     15 
     16 !-   ===========  ALL OBJECTS IN CLASS: SIMULATIONCONTROL ===========
     17 
     18 SimulationControl,
     19     No,                      !- Do Zone Sizing Calculation
     20     No,                      !- Do System Sizing Calculation
     21     No,                      !- Do Plant Sizing Calculation
     22     No,                      !- Run Simulation for Sizing Periods
     23     Yes;                     !- Run Simulation for Weather File Run Periods
     24 
     25 
     26 !-   ===========  ALL OBJECTS IN CLASS: BUILDING ===========
     27 
     28 Building,
     29     Building,                !- Name
     30     0,                       !- North Axis {deg}
     31     Suburbs,                 !- Terrain
     32     0.04,                    !- Loads Convergence Tolerance Value
     33     0.4,                     !- Temperature Convergence Tolerance Value {deltaC}
     34     FullExterior,            !- Solar Distribution
     35     25,                      !- Maximum Number of Warmup Days
     36     6;                       !- Minimum Number of Warmup Days
     37 
     38 
     39 !-   ===========  ALL OBJECTS IN CLASS: SHADOWCALCULATION ===========
     40 
     41 ShadowCalculation,
     42     AverageOverDaysInFrequency,  !- Calculation Method
     43     20,                      !- Calculation Frequency
     44     15000;                   !- Maximum Figures in Shadow Overlap Calculations
     45 
     46 
     47 !-   ===========  ALL OBJECTS IN CLASS: SURFACECONVECTIONALGORITHM:INSIDE ===========
     48 
     49 SurfaceConvectionAlgorithm:Inside,
     50     TARP;                    !- Algorithm
     51 
     52 
     53 !-   ===========  ALL OBJECTS IN CLASS: SURFACECONVECTIONALGORITHM:OUTSIDE ===========
     54 
     55 SurfaceConvectionAlgorithm:Outside,
     56     DOE-2;                   !- Algorithm
     57 
     58 
     59 !-   ===========  ALL OBJECTS IN CLASS: HEATBALANCEALGORITHM ===========
     60 
     61 HeatBalanceAlgorithm,
     62     ConductionTransferFunction,  !- Algorithm
     63     2000;                    !- Surface Temperature Upper Limit {C}
     64 
     65 
     66 !-   ===========  ALL OBJECTS IN CLASS: ZONECAPACITANCEMULTIPLIER:RESEARCHSPECIAL ===========
     67 
     68 ZoneCapacitanceMultiplier:ResearchSpecial,
     69     1.0,                     !- Temperature Capacity Multiplier
     70     1.0,                     !- Humidity Capacity Multiplier
     71     1.0,                     !- Carbon Dioxide Capacity Multiplier
     72     1.0;                     !- Generic Contaminant Capacity Multiplier
     73 
     74 
     75 !-   ===========  ALL OBJECTS IN CLASS: TIMESTEP ===========
     76 
     77 Timestep,
     78     1;                       !- Number of Timesteps per Hour
     79 
     80 
     81 !-   ===========  ALL OBJECTS IN CLASS: CONVERGENCELIMITS ===========
     82 
     83 ConvergenceLimits,
     84     1,                       !- Minimum System Timestep {minutes}
     85     20;                      !- Maximum HVAC Iterations
     86 
     87 
     88 !-   ===========  ALL OBJECTS IN CLASS: SITE:LOCATION ===========
     89 
     90 ! Hourly weather file: C:\ProgramData\DesignBuilder\Weather Data\KOR_INCH'ON_IWEC.epw
     91 Site:Location,
     92     Yangjae Elementary School,  !- Name
     93     37.48,                   !- Latitude {deg}
     94     126.55,                  !- Longitude {deg}
     95     9,                       !- Time Zone {hr}
     96     70;                      !- Elevation {m}
     97 
     98 
     99 !-   ===========  ALL OBJECTS IN CLASS: RUNPERIOD ===========
    100 
    101 RunPeriod,
    102     Yangjae Elementary School,  !- Name
    103     1,                       !- Begin Month
    104     1,                       !- Begin Day of Month
    105     12,                      !- End Month
    106     31,                      !- End Day of Month
    107     UseWeatherFile,          !- Day of Week for Start Day
    108     No,                      !- Use Weather File Holidays and Special Days
    109     Yes,                     !- Use Weather File Daylight Saving Period
    110     Yes,                     !- Apply Weekend Holiday Rule
    111     Yes,                     !- Use Weather File Rain Indicators
    112     Yes,                     !- Use Weather File Snow Indicators
    113     1;                       !- Number of Times Runperiod to be Repeated
    114 
    115 
    116 !-   ===========  ALL OBJECTS IN CLASS: RUNPERIODCONTROL:SPECIALDAYS ===========
    117 
    118 RunPeriodControl:SpecialDays,
    119     New Years Day,           !- Name
    120     1/1,                     !- Start Date
    121     1,                       !- Duration {days}
    122     Holiday;                 !- Special Day Type
    123 
    124 RunPeriodControl:SpecialDays,
    125     Seolnal,                 !- Name
    126     1/26,                    !- Start Date
    127     2,                       !- Duration {days}
    128     Holiday;                 !- Special Day Type
    129 
    130 RunPeriodControl:SpecialDays,
    131     Buddha's birthday,       !- Name
    132     5/2,                     !- Start Date
    133     1,                       !- Duration {days}
    134     Holiday;                 !- Special Day Type
    135 
    136 RunPeriodControl:SpecialDays,
    137     Children's day,          !- Name
    138     5/5,                     !- Start Date
    139     1,                       !- Duration {days}
    140     Holiday;                 !- Special Day Type
    141 
    142 RunPeriodControl:SpecialDays,
    143     Memorial Day,            !- Name
    144     6/6,                     !- Start Date
    145     1,                       !- Duration {days}
    146     Holiday;                 !- Special Day Type
    147 
    148 RunPeriodControl:SpecialDays,
    149     National Liberation Day, !- Name
    150     8/15,                    !- Start Date
    151     1,                       !- Duration {days}
    152     Holiday;                 !- Special Day Type
    153 
    154 RunPeriodControl:SpecialDays,
    155     Chuseok,                 !- Name
    156     10/2,                    !- Start Date
    157     3,                       !- Duration {days}
    158     Holiday;                 !- Special Day Type
    159 
    160 RunPeriodControl:SpecialDays,
    161     Christmas,               !- Name
    162     12/25,                   !- Start Date
    163     1,                       !- Duration {days}
    164     Holiday;                 !- Special Day Type
    165 
    166 
    167 !-   ===========  ALL OBJECTS IN CLASS: SITE:GROUNDTEMPERATURE:BUILDINGSURFACE ===========
    168 
    169 Site:GroundTemperature:BuildingSurface,
    170     18,                      !- January Ground Temperature {C}
    171     18,                      !- February Ground Temperature {C}
    172     18,                      !- March Ground Temperature {C}
    173     18,                      !- April Ground Temperature {C}
    174     18,                      !- May Ground Temperature {C}
    175     18,                      !- June Ground Temperature {C}
    176     18,                      !- July Ground Temperature {C}
    177     18,                      !- August Ground Temperature {C}
    178     18,                      !- September Ground Temperature {C}
    179     18,                      !- October Ground Temperature {C}
    180     18,                      !- November Ground Temperature {C}
    181     18;                      !- December Ground Temperature {C}
    182 
    183 
    184 !-   ===========  ALL OBJECTS IN CLASS: SITE:GROUNDREFLECTANCE ===========
    185 
    186 Site:GroundReflectance,
    187     0.2,                     !- January Ground Reflectance {dimensionless}
    188     0.2,                     !- February Ground Reflectance {dimensionless}
    189     0.2,                     !- March Ground Reflectance {dimensionless}
    190     0.2,                     !- April Ground Reflectance {dimensionless}
    191     0.2,                     !- May Ground Reflectance {dimensionless}
    192     0.2,                     !- June Ground Reflectance {dimensionless}
    193     0.2,                     !- July Ground Reflectance {dimensionless}
    194     0.2,                     !- August Ground Reflectance {dimensionless}
    195     0.2,                     !- September Ground Reflectance {dimensionless}
    196     0.2,                     !- October Ground Reflectance {dimensionless}
    197     0.2,                     !- November Ground Reflectance {dimensionless}
    198     0.2;                     !- December Ground Reflectance {dimensionless}
    199 
    200 
    201 !-   ===========  ALL OBJECTS IN CLASS: SITE:GROUNDREFLECTANCE:SNOWMODIFIER ===========
    202 
    203 Site:GroundReflectance:SnowModifier,
    204     1.0,                     !- Ground Reflected Solar Modifier
    205     1.0;                     !- Daylighting Ground Reflected Solar Modifier
    206 
    207 
    208 !-   ===========  ALL OBJECTS IN CLASS: SCHEDULETYPELIMITS ===========
    209 
    210 ScheduleTypeLimits,
    211     Any Number;              !- Name
    212 
    213 ScheduleTypeLimits,
    214     Fraction,                !- Name
    215     0.0,                     !- Lower Limit Value
    216     1.0,                     !- Upper Limit Value
    217     CONTINUOUS;              !- Numeric Type
    218 
    219 ScheduleTypeLimits,
    220     Temperature,             !- Name
    221     -60,                     !- Lower Limit Value
    222     200,                     !- Upper Limit Value
    223     CONTINUOUS;              !- Numeric Type
    224 
    225 ScheduleTypeLimits,
    226     Control Type,            !- Name
    227     0,                       !- Lower Limit Value
    228     4,                       !- Upper Limit Value
    229     DISCRETE;                !- Numeric Type
    230 
    231 ScheduleTypeLimits,
    232     On/Off,                  !- Name
    233     0,                       !- Lower Limit Value
    234     1,                       !- Upper Limit Value
    235     DISCRETE;                !- Numeric Type
    236 
    237 
    238 !-   ===========  ALL OBJECTS IN CLASS: SCHEDULE:DAY:HOURLY ===========
    239 
    240 !Schedule:Compact, AirVelocitySchedule,
    241 !      Any Number,                                 ! Type
    242 !      Through: 12/31,                             ! Type
    243 !      For: AllDays,                               ! All days in year
    244 !      Until: 24:00,                               ! All hours in day
    245 !       0.137;
    246 ! off heating day
    247 Schedule:Day:Hourly,
    248     0,                       !- Name
    249     Any Number,              !- Schedule Type Limits Name
    250     0,                       !- Hour 1
    251     0,                       !- Hour 2
    252     0,                       !- Hour 3
    253     0,                       !- Hour 4
    254     0,                       !- Hour 5
    255     0,                       !- Hour 6
    256     0,                       !- Hour 7
    257     0,                       !- Hour 8
    258     0,                       !- Hour 9
    259     0,                       !- Hour 10
    260     0,                       !- Hour 11
    261     0,                       !- Hour 12
    262     0,                       !- Hour 13
    263     0,                       !- Hour 14
    264     0,                       !- Hour 15
    265     0,                       !- Hour 16
    266     0,                       !- Hour 17
    267     0,                       !- Hour 18
    268     0,                       !- Hour 19
    269     0,                       !- Hour 20
    270     0,                       !- Hour 21
    271     0,                       !- Hour 22
    272     0,                       !- Hour 23
    273     0;                       !- Hour 24
    274 
    275 ! off cooling day
    276 Schedule:Day:Hourly,
    277     50,                      !- Name
    278     Any Number,              !- Schedule Type Limits Name
    279     50,                      !- Hour 1
    280     50,                      !- Hour 2
    281     50,                      !- Hour 3
    282     50,                      !- Hour 4
    283     50,                      !- Hour 5
    284     50,                      !- Hour 6
    285     50,                      !- Hour 7
    286     50,                      !- Hour 8
    287     50,                      !- Hour 9
    288     50,                      !- Hour 10
    289     50,                      !- Hour 11
    290     50,                      !- Hour 12
    291     50,                      !- Hour 13
    292     50,                      !- Hour 14
    293     50,                      !- Hour 15
    294     50,                      !- Hour 16
    295     50,                      !- Hour 17
    296     50,                      !- Hour 18
    297     50,                      !- Hour 19
    298     50,                      !- Hour 20
    299     50,                      !- Hour 21
    300     50,                      !- Hour 22
    301     50,                      !- Hour 23
    302     50;                      !- Hour 24
    303 
    304 ! used in seasonal schedules
    305 Schedule:Day:Hourly,
    306     Off,                     !- Name
    307     Fraction,                !- Schedule Type Limits Name
    308     0,                       !- Hour 1
    309     0,                       !- Hour 2
    310     0,                       !- Hour 3
    311     0,                       !- Hour 4
    312     0,                       !- Hour 5
    313     0,                       !- Hour 6
    314     0,                       !- Hour 7
    315     0,                       !- Hour 8
    316     0,                       !- Hour 9
    317     0,                       !- Hour 10
    318     0,                       !- Hour 11
    319     0,                       !- Hour 12
    320     0,                       !- Hour 13
    321     0,                       !- Hour 14
    322     0,                       !- Hour 15
    323     0,                       !- Hour 16
    324     0,                       !- Hour 17
    325     0,                       !- Hour 18
    326     0,                       !- Hour 19
    327     0,                       !- Hour 20
    328     0,                       !- Hour 21
    329     0,                       !- Hour 22
    330     0,                       !- Hour 23
    331     0;                       !- Hour 24
    332 
    333 ! -------------------- Control type schedules (for heating & cooling) ----------------------
    334 Schedule:Day:Hourly,
    335     Summer Control Type Day Sch,  !- Name
    336     Control Type,            !- Schedule Type Limits Name
    337     4,                       !- Hour 1
    338     4,                       !- Hour 2
    339     4,                       !- Hour 3
    340     4,                       !- Hour 4
    341     4,                       !- Hour 5
    342     4,                       !- Hour 6
    343     4,                       !- Hour 7
    344     4,                       !- Hour 8
    345     4,                       !- Hour 9
    346     4,                       !- Hour 10
    347     4,                       !- Hour 11
    348     4,                       !- Hour 12
    349     4,                       !- Hour 13
    350     4,                       !- Hour 14
    351     4,                       !- Hour 15
    352     4,                       !- Hour 16
    353     4,                       !- Hour 17
    354     4,                       !- Hour 18
    355     4,                       !- Hour 19
    356     4,                       !- Hour 20
    357     4,                       !- Hour 21
    358     4,                       !- Hour 22
    359     4,                       !- Hour 23
    360     4;                       !- Hour 24
    361 
    362 Schedule:Day:Hourly,
    363     Winter Control Type Day Sch,  !- Name
    364     Control Type,            !- Schedule Type Limits Name
    365     4,                       !- Hour 1
    366     4,                       !- Hour 2
    367     4,                       !- Hour 3
    368     4,                       !- Hour 4
    369     4,                       !- Hour 5
    370     4,                       !- Hour 6
    371     4,                       !- Hour 7
    372     4,                       !- Hour 8
    373     4,                       !- Hour 9
    374     4,                       !- Hour 10
    375     4,                       !- Hour 11
    376     4,                       !- Hour 12
    377     4,                       !- Hour 13
    378     4,                       !- Hour 14
    379     4,                       !- Hour 15
    380     4,                       !- Hour 16
    381     4,                       !- Hour 17
    382     4,                       !- Hour 18
    383     4,                       !- Hour 19
    384     4,                       !- Hour 20
    385     4,                       !- Hour 21
    386     4,                       !- Hour 22
    387     4,                       !- Hour 23
    388     4;                       !- Hour 24
    389 
    390 Schedule:Day:Hourly,
    391     Summer Control Type Day Sch - cool,  !- Name
    392     Control Type,            !- Schedule Type Limits Name
    393     2,                       !- Hour 1
    394     2,                       !- Hour 2
    395     2,                       !- Hour 3
    396     2,                       !- Hour 4
    397     2,                       !- Hour 5
    398     2,                       !- Hour 6
    399     2,                       !- Hour 7
    400     2,                       !- Hour 8
    401     2,                       !- Hour 9
    402     2,                       !- Hour 10
    403     2,                       !- Hour 11
    404     2,                       !- Hour 12
    405     2,                       !- Hour 13
    406     2,                       !- Hour 14
    407     2,                       !- Hour 15
    408     2,                       !- Hour 16
    409     2,                       !- Hour 17
    410     2,                       !- Hour 18
    411     2,                       !- Hour 19
    412     2,                       !- Hour 20
    413     2,                       !- Hour 21
    414     2,                       !- Hour 22
    415     2,                       !- Hour 23
    416     2;                       !- Hour 24
    417 
    418 Schedule:Day:Hourly,
    419     Winter Control Type Day Sch - heat,  !- Name
    420     Control Type,            !- Schedule Type Limits Name
    421     1,                       !- Hour 1
    422     1,                       !- Hour 2
    423     1,                       !- Hour 3
    424     1,                       !- Hour 4
    425     1,                       !- Hour 5
    426     1,                       !- Hour 6
    427     1,                       !- Hour 7
    428     1,                       !- Hour 8
    429     1,                       !- Hour 9
    430     1,                       !- Hour 10
    431     1,                       !- Hour 11
    432     1,                       !- Hour 12
    433     1,                       !- Hour 13
    434     1,                       !- Hour 14
    435     1,                       !- Hour 15
    436     1,                       !- Hour 16
    437     1,                       !- Hour 17
    438     1,                       !- Hour 18
    439     1,                       !- Hour 19
    440     1,                       !- Hour 20
    441     1,                       !- Hour 21
    442     1,                       !- Hour 22
    443     1,                       !- Hour 23
    444     1;                       !- Hour 24
    445 
    446 
    447 !-   ===========  ALL OBJECTS IN CLASS: SCHEDULE:WEEK:DAILY ===========
    448 
    449 Schedule:Week:Daily,
    450     Off,                     !- Name
    451     Off,                     !- Sunday Schedule:Day Name
    452     Off,                     !- Monday Schedule:Day Name
    453     Off,                     !- Tuesday Schedule:Day Name
    454     Off,                     !- Wednesday Schedule:Day Name
    455     Off,                     !- Thursday Schedule:Day Name
    456     Off,                     !- Friday Schedule:Day Name
    457     Off,                     !- Saturday Schedule:Day Name
    458     Off,                     !- Holiday Schedule:Day Name
    459     Off,                     !- SummerDesignDay Schedule:Day Name
    460     Off,                     !- WinterDesignDay Schedule:Day Name
    461     Off,                     !- CustomDay1 Schedule:Day Name
    462     Off;                     !- CustomDay2 Schedule:Day Name
    463 
    464 Schedule:Week:Daily,
    465     Summer Control Type Week Sch,  !- Name
    466     Summer Control Type Day Sch,  !- Sunday Schedule:Day Name
    467     Summer Control Type Day Sch,  !- Monday Schedule:Day Name
    468     Summer Control Type Day Sch,  !- Tuesday Schedule:Day Name
    469     Summer Control Type Day Sch,  !- Wednesday Schedule:Day Name
    470     Summer Control Type Day Sch,  !- Thursday Schedule:Day Name
    471     Summer Control Type Day Sch,  !- Friday Schedule:Day Name
    472     Summer Control Type Day Sch,  !- Saturday Schedule:Day Name
    473     Summer Control Type Day Sch,  !- Holiday Schedule:Day Name
    474     Summer Control Type Day Sch,  !- SummerDesignDay Schedule:Day Name
    475     Summer Control Type Day Sch,  !- WinterDesignDay Schedule:Day Name
    476     Summer Control Type Day Sch,  !- CustomDay1 Schedule:Day Name
    477     Summer Control Type Day Sch;  !- CustomDay2 Schedule:Day Name
    478 
    479 Schedule:Week:Daily,
    480     Winter Control Type Week Sch,  !- Name
    481     Winter Control Type Day Sch,  !- Sunday Schedule:Day Name
    482     Winter Control Type Day Sch,  !- Monday Schedule:Day Name
    483     Winter Control Type Day Sch,  !- Tuesday Schedule:Day Name
    484     Winter Control Type Day Sch,  !- Wednesday Schedule:Day Name
    485     Winter Control Type Day Sch,  !- Thursday Schedule:Day Name
    486     Winter Control Type Day Sch,  !- Friday Schedule:Day Name
    487     Winter Control Type Day Sch,  !- Saturday Schedule:Day Name
    488     Winter Control Type Day Sch,  !- Holiday Schedule:Day Name
    489     Winter Control Type Day Sch,  !- SummerDesignDay Schedule:Day Name
    490     Winter Control Type Day Sch,  !- WinterDesignDay Schedule:Day Name
    491     Winter Control Type Day Sch,  !- CustomDay1 Schedule:Day Name
    492     Winter Control Type Day Sch;  !- CustomDay2 Schedule:Day Name
    493 
    494 Schedule:Week:Daily,
    495     Summer Control Type Week Sch - cool,  !- Name
    496     Summer Control Type Day Sch - cool,  !- Sunday Schedule:Day Name
    497     Summer Control Type Day Sch - cool,  !- Monday Schedule:Day Name
    498     Summer Control Type Day Sch - cool,  !- Tuesday Schedule:Day Name
    499     Summer Control Type Day Sch - cool,  !- Wednesday Schedule:Day Name
    500     Summer Control Type Day Sch - cool,  !- Thursday Schedule:Day Name
    501     Summer Control Type Day Sch - cool,  !- Friday Schedule:Day Name
    502     Summer Control Type Day Sch - cool,  !- Saturday Schedule:Day Name
    503     Summer Control Type Day Sch - cool,  !- Holiday Schedule:Day Name
    504     Summer Control Type Day Sch - cool,  !- SummerDesignDay Schedule:Day Name
    505     Summer Control Type Day Sch - cool,  !- WinterDesignDay Schedule:Day Name
    506     Summer Control Type Day Sch - cool,  !- CustomDay1 Schedule:Day Name
    507     Summer Control Type Day Sch - cool;  !- CustomDay2 Schedule:Day Name
    508 
    509 Schedule:Week:Daily,
    510     Winter Control Type Week Sch - heat,  !- Name
    511     Winter Control Type Day Sch - heat,  !- Sunday Schedule:Day Name
    512     Winter Control Type Day Sch - heat,  !- Monday Schedule:Day Name
    513     Winter Control Type Day Sch - heat,  !- Tuesday Schedule:Day Name
    514     Winter Control Type Day Sch - heat,  !- Wednesday Schedule:Day Name
    515     Winter Control Type Day Sch - heat,  !- Thursday Schedule:Day Name
    516     Winter Control Type Day Sch - heat,  !- Friday Schedule:Day Name
    517     Winter Control Type Day Sch - heat,  !- Saturday Schedule:Day Name
    518     Winter Control Type Day Sch - heat,  !- Holiday Schedule:Day Name
    519     Winter Control Type Day Sch - heat,  !- SummerDesignDay Schedule:Day Name
    520     Winter Control Type Day Sch - heat,  !- WinterDesignDay Schedule:Day Name
    521     Winter Control Type Day Sch - heat,  !- CustomDay1 Schedule:Day Name
    522     Winter Control Type Day Sch - heat;  !- CustomDay2 Schedule:Day Name
    523 
    524 
    525 !-   ===========  ALL OBJECTS IN CLASS: SCHEDULE:YEAR ===========
    526 
    527 Schedule:Year,
    528     Zone Control Type Sched, !- Name
    529     Control Type,            !- Schedule Type Limits Name
    530     Winter Control Type Week Sch,  !- Schedule:Week Name 1
    531     1,                       !- Start Month 1
    532     1,                       !- Start Day 1
    533     3,                       !- End Month 1
    534     31,                      !- End Day 1
    535     Summer Control Type Week Sch,  !- Schedule:Week Name 2
    536     4,                       !- Start Month 2
    537     1,                       !- Start Day 2
    538     9,                       !- End Month 2
    539     30,                      !- End Day 2
    540     Winter Control Type Week Sch,  !- Schedule:Week Name 3
    541     10,                      !- Start Month 3
    542     1,                       !- Start Day 3
    543     12,                      !- End Month 3
    544     31;                      !- End Day 3
    545 
    546 
    547 !-   ===========  ALL OBJECTS IN CLASS: SCHEDULE:COMPACT ===========
    548 
    549 Schedule:Compact,
    550     On,                      !- Name
    551     Any Number,              !- Schedule Type Limits Name
    552     Through: 12/31,          !- Field 1
    553     For: AllDays,            !- Field 2
    554     Until: 24:00,            !- Field 3
    555     1;                       !- Field 4
    556 
    557 Schedule:Compact,
    558     Off,                     !- Name
    559     Any Number,              !- Schedule Type Limits Name
    560     Through: 12/31,          !- Field 1
    561     For: AllDays,            !- Field 2
    562     Until: 24:00,            !- Field 3
    563     0;                       !- Field 4
    564 
    565 Schedule:Compact,
    566     Work efficiency,         !- Name
    567     Any Number,              !- Schedule Type Limits Name
    568     Through: 12/31,          !- Field 1
    569     For: AllDays,            !- Field 2
    570     Until: 24:00,            !- Field 3
    571     0;                       !- Field 4
    572 
    573 Schedule:Compact,
    574     OpaqueShade,             !- Name
    575     Any Number,              !- Schedule Type Limits Name
    576     Through: 12/31,          !- Field 1
    577     For: AllDays,            !- Field 2
    578     Until: 24:00,            !- Field 3
    579     0;                       !- Field 4
    580 
    581 Schedule:Compact,
    582     AirVelocitySchedule,     !- Name
    583     Any Number,              !- Schedule Type Limits Name
    584     Through: 12/31,          !- Field 1
    585     For: AllDays,            !- Field 2
    586     Until: 24:00,            !- Field 3
    587     0.137;                   !- Field 4
    588 
    589 ! Schedule: PrmSchl_CellOff_Occ
    590 Schedule:Compact,
    591     129,                     !- Name
    592     Fraction,                !- Schedule Type Limits Name
    593     Through: 09 Jan,         !- Field 1
    594     For: AllDays,            !- Field 2
    595     Until: 24:00,            !- Field 3
    596     0,                       !- Field 4
    597     Through: 13 Feb,         !- Field 5
    598     For: Weekdays SummerDesignDay,  !- Field 6
    599     Until: 08:00,            !- Field 7
    600     0,                       !- Field 8
    601     Until: 09:00,            !- Field 9
    602     0.25,                    !- Field 10
    603     Until: 12:00,            !- Field 11
    604     1,                       !- Field 12
    605     Until: 14:00,            !- Field 13
    606     0.75,                    !- Field 14
    607     Until: 16:00,            !- Field 15
    608     1,                       !- Field 16
    609     Until: 17:00,            !- Field 17
    610     0.25,                    !- Field 18
    611     Until: 24:00,            !- Field 19
    612     0,                       !- Field 20
    613     For: Weekends Holidays,  !- Field 21
    614     Until: 24:00,            !- Field 22
    615     0,                       !- Field 23
    616     For: WinterDesignDay AllOtherDays,  !- Field 24
    617     Until: 24:00,            !- Field 25
    618     0,                       !- Field 26
    619     Through: 20 Feb,         !- Field 27
    620     For: AllDays,            !- Field 28
    621     Until: 24:00,            !- Field 29
    622     0,                       !- Field 30
    623     Through: 20 Mar,         !- Field 31
    624     For: Weekdays SummerDesignDay,  !- Field 32
    625     Until: 08:00,            !- Field 33
    626     0,                       !- Field 34
    627     Until: 09:00,            !- Field 35
    628     0.25,                    !- Field 36
    629     Until: 12:00,            !- Field 37
    630     1,                       !- Field 38
    631     Until: 14:00,            !- Field 39
    632     0.75,                    !- Field 40
    633     Until: 16:00,            !- Field 41
    634     1,                       !- Field 42
    635     Until: 17:00,            !- Field 43
    636     0.25,                    !- Field 44
    637     Until: 24:00,            !- Field 45
    638     0,                       !- Field 46
    639     For: Weekends Holidays,  !- Field 47
    640     Until: 24:00,            !- Field 48
    641     0,                       !- Field 49
    642     For: WinterDesignDay AllOtherDays,  !- Field 50
    643     Until: 24:00,            !- Field 51
    644     0,                       !- Field 52
    645     Through: 03 Apr,         !- Field 53
    646     For: AllDays,            !- Field 54
    647     Until: 24:00,            !- Field 55
    648     0,                       !- Field 56
    649     Through: 29 May,         !- Field 57
    650     For: Weekdays SummerDesignDay,  !- Field 58
    651     Until: 08:00,            !- Field 59
    652     0,                       !- Field 60
    653     Until: 09:00,            !- Field 61
    654     0.25,                    !- Field 62
    655     Until: 12:00,            !- Field 63
    656     1,                       !- Field 64
    657     Until: 14:00,            !- Field 65
    658     0.75,                    !- Field 66
    659     Until: 16:00,            !- Field 67
    660     1,                       !- Field 68
    661     Until: 17:00,            !- Field 69
    662     0.25,                    !- Field 70
    663     Until: 24:00,            !- Field 71
    664     0,                       !- Field 72
    665     For: Weekends Holidays,  !- Field 73
    666     Until: 24:00,            !- Field 74
    667     0,                       !- Field 75
    668     For: WinterDesignDay AllOtherDays,  !- Field 76
    669     Until: 24:00,            !- Field 77
    670     0,                       !- Field 78
    671     Through: 05 Jun,         !- Field 79
    672     For: AllDays,            !- Field 80
    673     Until: 24:00,            !- Field 81
    674     0,                       !- Field 82
    675     Through: 24 Jul,         !- Field 83
    676     For: Weekdays SummerDesignDay,  !- Field 84
    677     Until: 08:00,            !- Field 85
    678     0,                       !- Field 86
    679     Until: 09:00,            !- Field 87
    680     0.25,                    !- Field 88
    681     Until: 12:00,            !- Field 89
    682     1,                       !- Field 90
    683     Until: 14:00,            !- Field 91
    684     0.75,                    !- Field 92
    685     Until: 16:00,            !- Field 93
    686     1,                       !- Field 94
    687     Until: 17:00,            !- Field 95
    688     0.25,                    !- Field 96
    689     Until: 24:00,            !- Field 97
    690     0,                       !- Field 98
    691     For: Weekends Holidays,  !- Field 99
    692     Until: 24:00,            !- Field 100
    693     0,                       !- Field 101
    694     For: WinterDesignDay AllOtherDays,  !- Field 102
    695     Until: 24:00,            !- Field 103
    696     0,                       !- Field 104
    697     Through: 04 Sep,         !- Field 105
    698     For: AllDays,            !- Field 106
    699     Until: 24:00,            !- Field 107
    700     0,                       !- Field 108
    701     Through: 23 Oct,         !- Field 109
    702     For: Weekdays SummerDesignDay,  !- Field 110
    703     Until: 08:00,            !- Field 111
    704     0,                       !- Field 112
    705     Until: 09:00,            !- Field 113
    706     0.25,                    !- Field 114
    707     Until: 12:00,            !- Field 115
    708     1,                       !- Field 116
    709     Until: 14:00,            !- Field 117
    710     0.75,                    !- Field 118
    711     Until: 16:00,            !- Field 119
    712     1,                       !- Field 120
    713     Until: 17:00,            !- Field 121
    714     0.25,                    !- Field 122
    715     Until: 24:00,            !- Field 123
    716     0,                       !- Field 124
    717     For: Weekends Holidays,  !- Field 125
    718     Until: 24:00,            !- Field 126
    719     0,                       !- Field 127
    720     For: WinterDesignDay AllOtherDays,  !- Field 128
    721     Until: 24:00,            !- Field 129
    722     0,                       !- Field 130
    723     Through: 30 Oct,         !- Field 131
    724     For: AllDays,            !- Field 132
    725     Until: 24:00,            !- Field 133
    726     0,                       !- Field 134
    727     Through: 22 Dec,         !- Field 135
    728     For: Weekdays SummerDesignDay,  !- Field 136
    729     Until: 08:00,            !- Field 137
    730     0,                       !- Field 138
    731     Until: 09:00,            !- Field 139
    732     0.25,                    !- Field 140
    733     Until: 12:00,            !- Field 141
    734     1,                       !- Field 142
    735     Until: 14:00,            !- Field 143
    736     0.75,                    !- Field 144
    737     Until: 16:00,            !- Field 145
    738     1,                       !- Field 146
    739     Until: 17:00,            !- Field 147
    740     0.25,                    !- Field 148
    741     Until: 24:00,            !- Field 149
    742     0,                       !- Field 150
    743     For: Weekends Holidays,  !- A153
    744     Until: 24:00,            !- A154
    745     0,                       !- A155
    746     For: WinterDesignDay AllOtherDays,  !- A156
    747     Until: 24:00,            !- A157
    748     0,                       !- A158
    749     Through: 31 Dec,         !- A159
    750     For: AllDays,            !- A160
    751     Until: 24:00,            !- A161
    752     0;                       !- A162
    753 
    754 ! Schedule: PrmSchl_Circulation_Occ
    755 Schedule:Compact,
    756     132,                     !- Name
    757     Fraction,                !- Schedule Type Limits Name
    758     Through: 09 Jan,         !- Field 1
    759     For: AllDays,            !- Field 2
    760     Until: 24:00,            !- Field 3
    761     0,                       !- Field 4
    762     Through: 13 Feb,         !- Field 5
    763     For: Weekdays SummerDesignDay,  !- Field 6
    764     Until: 08:00,            !- Field 7
    765     0,                       !- Field 8
    766     Until: 17:00,            !- Field 9
    767     0.75,                    !- Field 10
    768     Until: 24:00,            !- Field 11
    769     0,                       !- Field 12
    770     For: Weekends Holidays,  !- Field 13
    771     Until: 24:00,            !- Field 14
    772     0,                       !- Field 15
    773     For: WinterDesignDay AllOtherDays,  !- Field 16
    774     Until: 24:00,            !- Field 17
    775     0,                       !- Field 18
    776     Through: 20 Feb,         !- Field 19
    777     For: AllDays,            !- Field 20
    778     Until: 24:00,            !- Field 21
    779     0,                       !- Field 22
    780     Through: 20 Mar,         !- Field 23
    781     For: Weekdays SummerDesignDay,  !- Field 24
    782     Until: 08:00,            !- Field 25
    783     0,                       !- Field 26
    784     Until: 17:00,            !- Field 27
    785     0.75,                    !- Field 28
    786     Until: 24:00,            !- Field 29
    787     0,                       !- Field 30
    788     For: Weekends Holidays,  !- Field 31
    789     Until: 24:00,            !- Field 32
    790     0,                       !- Field 33
    791     For: WinterDesignDay AllOtherDays,  !- Field 34
    792     Until: 24:00,            !- Field 35
    793     0,                       !- Field 36
    794     Through: 03 Apr,         !- Field 37
    795     For: AllDays,            !- Field 38
    796     Until: 24:00,            !- Field 39
    797     0,                       !- Field 40
    798     Through: 29 May,         !- Field 41
    799     For: Weekdays SummerDesignDay,  !- Field 42
    800     Until: 08:00,            !- Field 43
    801     0,                       !- Field 44
    802     Until: 17:00,            !- Field 45
    803     0.75,                    !- Field 46
    804     Until: 24:00,            !- Field 47
    805     0,                       !- Field 48
    806     For: Weekends Holidays,  !- Field 49
    807     Until: 24:00,            !- Field 50
    808     0,                       !- Field 51
    809     For: WinterDesignDay AllOtherDays,  !- Field 52
    810     Until: 24:00,            !- Field 53
    811     0,                       !- Field 54
    812     Through: 05 Jun,         !- Field 55
    813     For: AllDays,            !- Field 56
    814     Until: 24:00,            !- Field 57
    815     0,                       !- Field 58
    816     Through: 24 Jul,         !- Field 59
    817     For: Weekdays SummerDesignDay,  !- Field 60
    818     Until: 08:00,            !- Field 61
    819     0,                       !- Field 62
    820     Until: 17:00,            !- Field 63
    821     0.75,                    !- Field 64
    822     Until: 24:00,            !- Field 65
    823     0,                       !- Field 66
    824     For: Weekends Holidays,  !- Field 67
    825     Until: 24:00,            !- Field 68
    826     0,                       !- Field 69
    827     For: WinterDesignDay AllOtherDays,  !- Field 70
    828     Until: 24:00,            !- Field 71
    829     0,                       !- Field 72
    830     Through: 04 Sep,         !- Field 73
    831     For: AllDays,            !- Field 74
    832     Until: 24:00,            !- Field 75
    833     0,                       !- Field 76
    834     Through: 23 Oct,         !- Field 77
    835     For: Weekdays SummerDesignDay,  !- Field 78
    836     Until: 08:00,            !- Field 79
    837     0,                       !- Field 80
    838     Until: 17:00,            !- Field 81
    839     0.75,                    !- Field 82
    840     Until: 24:00,            !- Field 83
    841     0,                       !- Field 84
    842     For: Weekends Holidays,  !- Field 85
    843     Until: 24:00,            !- Field 86
    844     0,                       !- Field 87
    845     For: WinterDesignDay AllOtherDays,  !- Field 88
    846     Until: 24:00,            !- Field 89
    847     0,                       !- Field 90
    848     Through: 30 Oct,         !- Field 91
    849     For: AllDays,            !- Field 92
    850     Until: 24:00,            !- Field 93
    851     0,                       !- Field 94
    852     Through: 22 Dec,         !- Field 95
    853     For: Weekdays SummerDesignDay,  !- Field 96
    854     Until: 08:00,            !- Field 97
    855     0,                       !- Field 98
    856     Until: 17:00,            !- Field 99
    857     0.75,                    !- Field 100
    858     Until: 24:00,            !- Field 101
    859     0,                       !- Field 102
    860     For: Weekends Holidays,  !- Field 103
    861     Until: 24:00,            !- Field 104
    862     0,                       !- Field 105
    863     For: WinterDesignDay AllOtherDays,  !- Field 106
    864     Until: 24:00,            !- Field 107
    865     0,                       !- Field 108
    866     Through: 31 Dec,         !- Field 109
    867     For: AllDays,            !- Field 110
    868     Until: 24:00,            !- Field 111
    869     0;                       !- Field 112
    870 
    871 ! Schedule: PrmSchl_Toilet_Occ
    872 Schedule:Compact,
    873     133,                     !- Name
    874     Fraction,                !- Schedule Type Limits Name
    875     Through: 09 Jan,         !- Field 1
    876     For: AllDays,            !- Field 2
    877     Until: 24:00,            !- Field 3
    878     0,                       !- Field 4
    879     Through: 13 Feb,         !- Field 5
    880     For: Weekdays SummerDesignDay,  !- Field 6
    881     Until: 08:00,            !- Field 7
    882     0,                       !- Field 8
    883     Until: 17:00,            !- Field 9
    884     0.25,                    !- Field 10
    885     Until: 24:00,            !- Field 11
    886     0,                       !- Field 12
    887     For: Weekends Holidays,  !- Field 13
    888     Until: 24:00,            !- Field 14
    889     0,                       !- Field 15
    890     For: WinterDesignDay AllOtherDays,  !- Field 16
    891     Until: 24:00,            !- Field 17
    892     0,                       !- Field 18
    893     Through: 20 Feb,         !- Field 19
    894     For: AllDays,            !- Field 20
    895     Until: 24:00,            !- Field 21
    896     0,                       !- Field 22
    897     Through: 20 Mar,         !- Field 23
    898     For: Weekdays SummerDesignDay,  !- Field 24
    899     Until: 08:00,            !- Field 25
    900     0,                       !- Field 26
    901     Until: 17:00,            !- Field 27
    902     0.25,                    !- Field 28
    903     Until: 24:00,            !- Field 29
    904     0,                       !- Field 30
    905     For: Weekends Holidays,  !- Field 31
    906     Until: 24:00,            !- Field 32
    907     0,                       !- Field 33
    908     For: WinterDesignDay AllOtherDays,  !- Field 34
    909     Until: 24:00,            !- Field 35
    910     0,                       !- Field 36
    911     Through: 03 Apr,         !- Field 37
    912     For: AllDays,            !- Field 38
    913     Until: 24:00,            !- Field 39
    914     0,                       !- Field 40
    915     Through: 29 May,         !- Field 41
    916     For: Weekdays SummerDesignDay,  !- Field 42
    917     Until: 08:00,            !- Field 43
    918     0,                       !- Field 44
    919     Until: 17:00,            !- Field 45
    920     0.25,                    !- Field 46
    921     Until: 24:00,            !- Field 47
    922     0,                       !- Field 48
    923     For: Weekends Holidays,  !- Field 49
    924     Until: 24:00,            !- Field 50
    925     0,                       !- Field 51
    926     For: WinterDesignDay AllOtherDays,  !- Field 52
    927     Until: 24:00,            !- Field 53
    928     0,                       !- Field 54
    929     Through: 05 Jun,         !- Field 55
    930     For: AllDays,            !- Field 56
    931     Until: 24:00,            !- Field 57
    932     0,                       !- Field 58
    933     Through: 24 Jul,         !- Field 59
    934     For: Weekdays SummerDesignDay,  !- Field 60
    935     Until: 08:00,            !- Field 61
    936     0,                       !- Field 62
    937     Until: 17:00,            !- Field 63
    938     0.25,                    !- Field 64
    939     Until: 24:00,            !- Field 65
    940     0,                       !- Field 66
    941     For: Weekends Holidays,  !- Field 67
    942     Until: 24:00,            !- Field 68
    943     0,                       !- Field 69
    944     For: WinterDesignDay AllOtherDays,  !- Field 70
    945     Until: 24:00,            !- Field 71
    946     0,                       !- Field 72
    947     Through: 04 Sep,         !- Field 73
    948     For: AllDays,            !- Field 74
    949     Until: 24:00,            !- Field 75
    950     0,                       !- Field 76
    951     Through: 23 Oct,         !- Field 77
    952     For: Weekdays SummerDesignDay,  !- Field 78
    953     Until: 08:00,            !- Field 79
    954     0,                       !- Field 80
    955     Until: 17:00,            !- Field 81
    956     0.25,                    !- Field 82
    957     Until: 24:00,            !- Field 83
    958     0,                       !- Field 84
    959     For: Weekends Holidays,  !- Field 85
    960     Until: 24:00,            !- Field 86
    961     0,                       !- Field 87
    962     For: WinterDesignDay AllOtherDays,  !- Field 88
    963     Until: 24:00,            !- Field 89
    964     0,                       !- Field 90
    965     Through: 30 Oct,         !- Field 91
    966     For: AllDays,            !- Field 92
    967     Until: 24:00,            !- Field 93
    968     0,                       !- Field 94
    969     Through: 22 Dec,         !- Field 95
    970     For: Weekdays SummerDesignDay,  !- Field 96
    971     Until: 08:00,            !- Field 97
    972     0,                       !- Field 98
    973     Until: 17:00,            !- Field 99
    974     0.25,                    !- Field 100
    975     Until: 24:00,            !- Field 101
    976     0,                       !- Field 102
    977     For: Weekends Holidays,  !- Field 103
    978     Until: 24:00,            !- Field 104
    979     0,                       !- Field 105
    980     For: WinterDesignDay AllOtherDays,  !- Field 106
    981     Until: 24:00,            !- Field 107
    982     0,                       !- Field 108
    983     Through: 31 Dec,         !- Field 109
    984     For: AllDays,            !- Field 110
    985     Until: 24:00,            !- Field 111
    986     0;                       !- Field 112
    987 
    988 ! Schedule: PrmSchl_FoodPrep_Occ
    989 Schedule:Compact,
    990     140,                     !- Name
    991     Fraction,                !- Schedule Type Limits Name
    992     Through: 09 Jan,         !- Field 1
    993     For: AllDays,            !- Field 2
    994     Until: 24:00,            !- Field 3
    995     0,                       !- Field 4
    996     Through: 13 Feb,         !- Field 5
    997     For: Weekdays SummerDesignDay,  !- Field 6
    998     Until: 09:00,            !- Field 7
    999     0,                       !- Field 8
   1000     Until: 10:00,            !- Field 9
   1001     0.25,                    !- Field 10
   1002     Until: 12:00,            !- Field 11
   1003     0.5,                     !- Field 12
   1004     Until: 14:00,            !- Field 13
   1005     1,                       !- Field 14
   1006     Until: 15:00,            !- Field 15
   1007     0.25,                    !- Field 16
   1008     Until: 24:00,            !- Field 17
   1009     0,                       !- Field 18
   1010     For: Weekends Holidays,  !- Field 19
   1011     Until: 24:00,            !- Field 20
   1012     0,                       !- Field 21
   1013     For: WinterDesignDay AllOtherDays,  !- Field 22
   1014     Until: 24:00,            !- Field 23
   1015     0,                       !- Field 24
   1016     Through: 20 Feb,         !- Field 25
   1017     For: AllDays,            !- Field 26
   1018     Until: 24:00,            !- Field 27
   1019     0,                       !- Field 28
   1020     Through: 20 Mar,         !- Field 29
   1021     For: Weekdays SummerDesignDay,  !- Field 30
   1022     Until: 09:00,            !- Field 31
   1023     0,                       !- Field 32
   1024     Until: 10:00,            !- Field 33
   1025     0.25,                    !- Field 34
   1026     Until: 12:00,            !- Field 35
   1027     0.5,                     !- Field 36
   1028     Until: 14:00,            !- Field 37
   1029     1,                       !- Field 38
   1030     Until: 15:00,            !- Field 39
   1031     0.25,                    !- Field 40
   1032     Until: 24:00,            !- Field 41
   1033     0,                       !- Field 42
   1034     For: Weekends Holidays,  !- Field 43
   1035     Until: 24:00,            !- Field 44
   1036     0,                       !- Field 45
   1037     For: WinterDesignDay AllOtherDays,  !- Field 46
   1038     Until: 24:00,            !- Field 47
   1039     0,                       !- Field 48
   1040     Through: 03 Apr,         !- Field 49
   1041     For: AllDays,            !- Field 50
   1042     Until: 24:00,            !- Field 51
   1043     0,                       !- Field 52
   1044     Through: 29 May,         !- Field 53
   1045     For: Weekdays SummerDesignDay,  !- Field 54
   1046     Until: 09:00,            !- Field 55
   1047     0,                       !- Field 56
   1048     Until: 10:00,            !- Field 57
   1049     0.25,                    !- Field 58
   1050     Until: 12:00,            !- Field 59
   1051     0.5,                     !- Field 60
   1052     Until: 14:00,            !- Field 61
   1053     1,                       !- Field 62
   1054     Until: 15:00,            !- Field 63
   1055     0.25,                    !- Field 64
   1056     Until: 24:00,            !- Field 65
   1057     0,                       !- Field 66
   1058     For: Weekends Holidays,  !- Field 67
   1059     Until: 24:00,            !- Field 68
   1060     0,                       !- Field 69
   1061     For: WinterDesignDay AllOtherDays,  !- Field 70
   1062     Until: 24:00,            !- Field 71
   1063     0,                       !- Field 72
   1064     Through: 05 Jun,         !- Field 73
   1065     For: AllDays,            !- Field 74
   1066     Until: 24:00,            !- Field 75
   1067     0,                       !- Field 76
   1068     Through: 24 Jul,         !- Field 77
   1069     For: Weekdays SummerDesignDay,  !- Field 78
   1070     Until: 09:00,            !- Field 79
   1071     0,                       !- Field 80
   1072     Until: 10:00,            !- Field 81
   1073     0.25,                    !- Field 82
   1074     Until: 12:00,            !- Field 83
   1075     0.5,                     !- Field 84
   1076     Until: 14:00,            !- Field 85
   1077     1,                       !- Field 86
   1078     Until: 15:00,            !- Field 87
   1079     0.25,                    !- Field 88
   1080     Until: 24:00,            !- Field 89
   1081     0,                       !- Field 90
   1082     For: Weekends Holidays,  !- Field 91
   1083     Until: 24:00,            !- Field 92
   1084     0,                       !- Field 93
   1085     For: WinterDesignDay AllOtherDays,  !- Field 94
   1086     Until: 24:00,            !- Field 95
   1087     0,                       !- Field 96
   1088     Through: 04 Sep,         !- Field 97
   1089     For: AllDays,            !- Field 98
   1090     Until: 24:00,            !- Field 99
   1091     0,                       !- Field 100
   1092     Through: 23 Oct,         !- Field 101
   1093     For: Weekdays SummerDesignDay,  !- Field 102
   1094     Until: 09:00,            !- Field 103
   1095     0,                       !- Field 104
   1096     Until: 10:00,            !- Field 105
   1097     0.25,                    !- Field 106
   1098     Until: 12:00,            !- Field 107
   1099     0.5,                     !- Field 108
   1100     Until: 14:00,            !- Field 109
   1101     1,                       !- Field 110
   1102     Until: 15:00,            !- Field 111
   1103     0.25,                    !- Field 112
   1104     Until: 24:00,            !- Field 113
   1105     0,                       !- Field 114
   1106     For: Weekends Holidays,  !- Field 115
   1107     Until: 24:00,            !- Field 116
   1108     0,                       !- Field 117
   1109     For: WinterDesignDay AllOtherDays,  !- Field 118
   1110     Until: 24:00,            !- Field 119
   1111     0,                       !- Field 120
   1112     Through: 30 Oct,         !- Field 121
   1113     For: AllDays,            !- Field 122
   1114     Until: 24:00,            !- Field 123
   1115     0,                       !- Field 124
   1116     Through: 22 Dec,         !- Field 125
   1117     For: Weekdays SummerDesignDay,  !- Field 126
   1118     Until: 09:00,            !- Field 127
   1119     0,                       !- Field 128
   1120     Until: 10:00,            !- Field 129
   1121     0.25,                    !- Field 130
   1122     Until: 12:00,            !- Field 131
   1123     0.5,                     !- Field 132
   1124     Until: 14:00,            !- Field 133
   1125     1,                       !- Field 134
   1126     Until: 15:00,            !- Field 135
   1127     0.25,                    !- Field 136
   1128     Until: 24:00,            !- Field 137
   1129     0,                       !- Field 138
   1130     For: Weekends Holidays,  !- Field 139
   1131     Until: 24:00,            !- Field 140
   1132     0,                       !- Field 141
   1133     For: WinterDesignDay AllOtherDays,  !- Field 142
   1134     Until: 24:00,            !- Field 143
   1135     0,                       !- Field 144
   1136     Through: 31 Dec,         !- Field 145
   1137     For: AllDays,            !- Field 146
   1138     Until: 24:00,            !- Field 147
   1139     0;                       !- Field 148
   1140 
   1141 ! Schedule: Office_OpenOff_Occ
   1142 Schedule:Compact,
   1143     1097,                    !- Name
   1144     Fraction,                !- Schedule Type Limits Name
   1145     Through: 31 Dec,         !- Field 1
   1146     For: Weekdays SummerDesignDay,  !- Field 2
   1147     Until: 07:00,            !- Field 3
   1148     0,                       !- Field 4
   1149     Until: 08:00,            !- Field 5
   1150     0.25,                    !- Field 6
   1151     Until: 09:00,            !- Field 7
   1152     0.5,                     !- Field 8
   1153     Until: 12:00,            !- Field 9
   1154     1,                       !- Field 10
   1155     Until: 14:00,            !- Field 11
   1156     0.75,                    !- Field 12
   1157     Until: 17:00,            !- Field 13
   1158     1,                       !- Field 14
   1159     Until: 18:00,            !- Field 15
   1160     0.5,                     !- Field 16
   1161     Until: 19:00,            !- Field 17
   1162     0.25,                    !- Field 18
   1163     Until: 24:00,            !- Field 19
   1164     0,                       !- Field 20
   1165     For: Weekends,           !- Field 21
   1166     Until: 24:00,            !- Field 22
   1167     0,                       !- Field 23
   1168     For: Holidays,           !- Field 24
   1169     Until: 24:00,            !- Field 25
   1170     0,                       !- Field 26
   1171     For: WinterDesignDay AllOtherDays,  !- Field 27
   1172     Until: 24:00,            !- Field 28
   1173     0;                       !- Field 29
   1174 
   1175 ! Schedule: PrmSchl_CellOff_Equip
   1176 Schedule:Compact,
   1177     1190,                    !- Name
   1178     Fraction,                !- Schedule Type Limits Name
   1179     Through: 09 Jan,         !- Field 1
   1180     For: AllDays,            !- Field 2
   1181     Until: 24:00,            !- Field 3
   1182     0.05,                    !- Field 4
   1183     Through: 13 Feb,         !- Field 5
   1184     For: Weekdays SummerDesignDay,  !- Field 6
   1185     Until: 08:00,            !- Field 7
   1186     0.05,                    !- Field 8
   1187     Until: 17:00,            !- Field 9
   1188     1,                       !- Field 10
   1189     Until: 24:00,            !- Field 11
   1190     0.05,                    !- Field 12
   1191     For: Weekends,           !- Field 13
   1192     Until: 24:00,            !- Field 14
   1193     0.05,                    !- Field 15
   1194     For: Holidays,           !- Field 16
   1195     Until: 24:00,            !- Field 17
   1196     0.05,                    !- Field 18
   1197     For: WinterDesignDay AllOtherDays,  !- Field 19
   1198     Until: 24:00,            !- Field 20
   1199     0,                       !- Field 21
   1200     Through: 20 Feb,         !- Field 22
   1201     For: AllDays,            !- Field 23
   1202     Until: 24:00,            !- Field 24
   1203     0.05,                    !- Field 25
   1204     Through: 20 Mar,         !- Field 26
   1205     For: Weekdays SummerDesignDay,  !- Field 27
   1206     Until: 08:00,            !- Field 28
   1207     0.05,                    !- Field 29
   1208     Until: 17:00,            !- Field 30
   1209     1,                       !- Field 31
   1210     Until: 24:00,            !- Field 32
   1211     0.05,                    !- Field 33
   1212     For: Weekends,           !- Field 34
   1213     Until: 24:00,            !- Field 35
   1214     0.05,                    !- Field 36
   1215     For: Holidays,           !- Field 37
   1216     Until: 24:00,            !- Field 38
   1217     0.05,                    !- Field 39
   1218     For: WinterDesignDay AllOtherDays,  !- Field 40
   1219     Until: 24:00,            !- Field 41
   1220     0,                       !- Field 42
   1221     Through: 03 Apr,         !- Field 43
   1222     For: AllDays,            !- Field 44
   1223     Until: 24:00,            !- Field 45
   1224     0.05,                    !- Field 46
   1225     Through: 29 May,         !- Field 47
   1226     For: Weekdays SummerDesignDay,  !- Field 48
   1227     Until: 08:00,            !- Field 49
   1228     0.05,                    !- Field 50
   1229     Until: 17:00,            !- Field 51
   1230     1,                       !- Field 52
   1231     Until: 24:00,            !- Field 53
   1232     0.05,                    !- Field 54
   1233     For: Weekends,           !- Field 55
   1234     Until: 24:00,            !- Field 56
   1235     0.05,                    !- Field 57
   1236     For: Holidays,           !- Field 58
   1237     Until: 24:00,            !- Field 59
   1238     0.05,                    !- Field 60
   1239     For: WinterDesignDay AllOtherDays,  !- Field 61
   1240     Until: 24:00,            !- Field 62
   1241     0,                       !- Field 63
   1242     Through: 05 Jun,         !- Field 64
   1243     For: AllDays,            !- Field 65
   1244     Until: 24:00,            !- Field 66
   1245     0.05,                    !- Field 67
   1246     Through: 24 Jul,         !- Field 68
   1247     For: Weekdays SummerDesignDay,  !- Field 69
   1248     Until: 08:00,            !- Field 70
   1249     0.05,                    !- Field 71
   1250     Until: 17:00,            !- Field 72
   1251     1,                       !- Field 73
   1252     Until: 24:00,            !- Field 74
   1253     0.05,                    !- Field 75
   1254     For: Weekends,           !- Field 76
   1255     Until: 24:00,            !- Field 77
   1256     0.05,                    !- Field 78
   1257     For: Holidays,           !- Field 79
   1258     Until: 24:00,            !- Field 80
   1259     0.05,                    !- Field 81
   1260     For: WinterDesignDay AllOtherDays,  !- Field 82
   1261     Until: 24:00,            !- Field 83
   1262     0,                       !- Field 84
   1263     Through: 04 Sep,         !- Field 85
   1264     For: AllDays,            !- Field 86
   1265     Until: 24:00,            !- Field 87
   1266     0.05,                    !- Field 88
   1267     Through: 23 Oct,         !- Field 89
   1268     For: Weekdays SummerDesignDay,  !- Field 90
   1269     Until: 08:00,            !- Field 91
   1270     0.05,                    !- Field 92
   1271     Until: 17:00,            !- Field 93
   1272     1,                       !- Field 94
   1273     Until: 24:00,            !- Field 95
   1274     0.05,                    !- Field 96
   1275     For: Weekends,           !- Field 97
   1276     Until: 24:00,            !- Field 98
   1277     0.05,                    !- Field 99
   1278     For: Holidays,           !- Field 100
   1279     Until: 24:00,            !- Field 101
   1280     0.05,                    !- Field 102
   1281     For: WinterDesignDay AllOtherDays,  !- Field 103
   1282     Until: 24:00,            !- Field 104
   1283     0,                       !- Field 105
   1284     Through: 30 Oct,         !- Field 106
   1285     For: AllDays,            !- Field 107
   1286     Until: 24:00,            !- Field 108
   1287     0.05,                    !- Field 109
   1288     Through: 22 Dec,         !- Field 110
   1289     For: Weekdays SummerDesignDay,  !- Field 111
   1290     Until: 08:00,            !- Field 112
   1291     0.05,                    !- Field 113
   1292     Until: 17:00,            !- Field 114
   1293     1,                       !- Field 115
   1294     Until: 24:00,            !- Field 116
   1295     0.05,                    !- Field 117
   1296     For: Weekends,           !- Field 118
   1297     Until: 24:00,            !- Field 119
   1298     0.05,                    !- Field 120
   1299     For: Holidays,           !- Field 121
   1300     Until: 24:00,            !- Field 122
   1301     0.05,                    !- Field 123
   1302     For: WinterDesignDay AllOtherDays,  !- Field 124
   1303     Until: 24:00,            !- Field 125
   1304     0,                       !- Field 126
   1305     Through: 31 Dec,         !- Field 127
   1306     For: AllDays,            !- Field 128
   1307     Until: 24:00,            !- Field 129
   1308     0.05;                    !- Field 130
   1309 
   1310 ! Schedule: PrmSchl_CellOff_Light
   1311 Schedule:Compact,
   1312     1191,                    !- Name
   1313     Fraction,                !- Schedule Type Limits Name
   1314     Through: 09 Jan,         !- Field 1
   1315     For: AllDays,            !- Field 2
   1316     Until: 24:00,            !- Field 3
   1317     0,                       !- Field 4
   1318     Through: 13 Feb,         !- Field 5
   1319     For: Weekdays SummerDesignDay,  !- Field 6
   1320     Until: 08:00,            !- Field 7
   1321     0,                       !- Field 8
   1322     Until: 17:00,            !- Field 9
   1323     1,                       !- Field 10
   1324     Until: 24:00,            !- Field 11
   1325     0,                       !- Field 12
   1326     For: Weekends,           !- Field 13
   1327     Until: 24:00,            !- Field 14
   1328     0,                       !- Field 15
   1329     For: Holidays,           !- Field 16
   1330     Until: 24:00,            !- Field 17
   1331     0,                       !- Field 18
   1332     For: WinterDesignDay AllOtherDays,  !- Field 19
   1333     Until: 24:00,            !- Field 20
   1334     0,                       !- Field 21
   1335     Through: 20 Feb,         !- Field 22
   1336     For: AllDays,            !- Field 23
   1337     Until: 24:00,            !- Field 24
   1338     0,                       !- Field 25
   1339     Through: 20 Mar,         !- Field 26
   1340     For: Weekdays SummerDesignDay,  !- Field 27
   1341     Until: 08:00,            !- Field 28
   1342     0,                       !- Field 29
   1343     Until: 17:00,            !- Field 30
   1344     1,                       !- Field 31
   1345     Until: 24:00,            !- Field 32
   1346     0,                       !- Field 33
   1347     For: Weekends,           !- Field 34
   1348     Until: 24:00,            !- Field 35
   1349     0,                       !- Field 36
   1350     For: Holidays,           !- Field 37
   1351     Until: 24:00,            !- Field 38
   1352     0,                       !- Field 39
   1353     For: WinterDesignDay AllOtherDays,  !- Field 40
   1354     Until: 24:00,            !- Field 41
   1355     0,                       !- Field 42
   1356     Through: 03 Apr,         !- Field 43
   1357     For: AllDays,            !- Field 44
   1358     Until: 24:00,            !- Field 45
   1359     0,                       !- Field 46
   1360     Through: 29 May,         !- Field 47
   1361     For: Weekdays SummerDesignDay,  !- Field 48
   1362     Until: 08:00,            !- Field 49
   1363     0,                       !- Field 50
   1364     Until: 17:00,            !- Field 51
   1365     1,                       !- Field 52
   1366     Until: 24:00,            !- Field 53
   1367     0,                       !- Field 54
   1368     For: Weekends,           !- Field 55
   1369     Until: 24:00,            !- Field 56
   1370     0,                       !- Field 57
   1371     For: Holidays,           !- Field 58
   1372     Until: 24:00,            !- Field 59
   1373     0,                       !- Field 60
   1374     For: WinterDesignDay AllOtherDays,  !- Field 61
   1375     Until: 24:00,            !- Field 62
   1376     0,                       !- Field 63
   1377     Through: 05 Jun,         !- Field 64
   1378     For: AllDays,            !- Field 65
   1379     Until: 24:00,            !- Field 66
   1380     0,                       !- Field 67
   1381     Through: 24 Jul,         !- Field 68
   1382     For: Weekdays SummerDesignDay,  !- Field 69
   1383     Until: 08:00,            !- Field 70
   1384     0,                       !- Field 71
   1385     Until: 17:00,            !- Field 72
   1386     1,                       !- Field 73
   1387     Until: 24:00,            !- Field 74
   1388     0,                       !- Field 75
   1389     For: Weekends,           !- Field 76
   1390     Until: 24:00,            !- Field 77
   1391     0,                       !- Field 78
   1392     For: Holidays,           !- Field 79
   1393     Until: 24:00,            !- Field 80
   1394     0,                       !- Field 81
   1395     For: WinterDesignDay AllOtherDays,  !- Field 82
   1396     Until: 24:00,            !- Field 83
   1397     0,                       !- Field 84
   1398     Through: 04 Sep,         !- Field 85
   1399     For: AllDays,            !- Field 86
   1400     Until: 24:00,            !- Field 87
   1401     0,                       !- Field 88
   1402     Through: 23 Oct,         !- Field 89
   1403     For: Weekdays SummerDesignDay,  !- Field 90
   1404     Until: 08:00,            !- Field 91
   1405     0,                       !- Field 92
   1406     Until: 17:00,            !- Field 93
   1407     1,                       !- Field 94
   1408     Until: 24:00,            !- Field 95
   1409     0,                       !- Field 96
   1410     For: Weekends,           !- Field 97
   1411     Until: 24:00,            !- Field 98
   1412     0,                       !- Field 99
   1413     For: Holidays,           !- Field 100
   1414     Until: 24:00,            !- Field 101
   1415     0,                       !- Field 102
   1416     For: WinterDesignDay AllOtherDays,  !- Field 103
   1417     Until: 24:00,            !- Field 104
   1418     0,                       !- Field 105
   1419     Through: 30 Oct,         !- Field 106
   1420     For: AllDays,            !- Field 107
   1421     Until: 24:00,            !- Field 108
   1422     0,                       !- Field 109
   1423     Through: 22 Dec,         !- Field 110
   1424     For: Weekdays SummerDesignDay,  !- Field 111
   1425     Until: 08:00,            !- Field 112
   1426     0,                       !- Field 113
   1427     Until: 17:00,            !- Field 114
   1428     1,                       !- Field 115
   1429     Until: 24:00,            !- Field 116
   1430     0,                       !- Field 117
   1431     For: Weekends,           !- Field 118
   1432     Until: 24:00,            !- Field 119
   1433     0,                       !- Field 120
   1434     For: Holidays,           !- Field 121
   1435     Until: 24:00,            !- Field 122
   1436     0,                       !- Field 123
   1437     For: WinterDesignDay AllOtherDays,  !- Field 124
   1438     Until: 24:00,            !- Field 125
   1439     0,                       !- Field 126
   1440     Through: 31 Dec,         !- Field 127
   1441     For: AllDays,            !- Field 128
   1442     Until: 24:00,            !- Field 129
   1443     0;                       !- Field 130
   1444 
   1445 ! Schedule: PrmSchl_OpenOff_Light
   1446 Schedule:Compact,
   1447     1196,                    !- Name
   1448     Fraction,                !- Schedule Type Limits Name
   1449     Through: 09 Jan,         !- Field 1
   1450     For: AllDays,            !- Field 2
   1451     Until: 24:00,            !- Field 3
   1452     0,                       !- Field 4
   1453     Through: 13 Feb,         !- Field 5
   1454     For: Weekdays SummerDesignDay,  !- Field 6
   1455     Until: 08:00,            !- Field 7
   1456     0,                       !- Field 8
   1457     Until: 17:00,            !- Field 9
   1458     1,                       !- Field 10
   1459     Until: 24:00,            !- Field 11
   1460     0,                       !- Field 12
   1461     For: Weekends,           !- Field 13
   1462     Until: 24:00,            !- Field 14
   1463     0,                       !- Field 15
   1464     For: Holidays,           !- Field 16
   1465     Until: 24:00,            !- Field 17
   1466     0,                       !- Field 18
   1467     For: WinterDesignDay AllOtherDays,  !- Field 19
   1468     Until: 24:00,            !- Field 20
   1469     0,                       !- Field 21
   1470     Through: 20 Feb,         !- Field 22
   1471     For: AllDays,            !- Field 23
   1472     Until: 24:00,            !- Field 24
   1473     0,                       !- Field 25
   1474     Through: 20 Mar,         !- Field 26
   1475     For: Weekdays SummerDesignDay,  !- Field 27
   1476     Until: 08:00,            !- Field 28
   1477     0,                       !- Field 29
   1478     Until: 17:00,            !- Field 30
   1479     1,                       !- Field 31
   1480     Until: 24:00,            !- Field 32
   1481     0,                       !- Field 33
   1482     For: Weekends,           !- Field 34
   1483     Until: 24:00,            !- Field 35
   1484     0,                       !- Field 36
   1485     For: Holidays,           !- Field 37
   1486     Until: 24:00,            !- Field 38
   1487     0,                       !- Field 39
   1488     For: WinterDesignDay AllOtherDays,  !- Field 40
   1489     Until: 24:00,            !- Field 41
   1490     0,                       !- Field 42
   1491     Through: 03 Apr,         !- Field 43
   1492     For: AllDays,            !- Field 44
   1493     Until: 24:00,            !- Field 45
   1494     0,                       !- Field 46
   1495     Through: 29 May,         !- Field 47
   1496     For: Weekdays SummerDesignDay,  !- Field 48
   1497     Until: 08:00,            !- Field 49
   1498     0,                       !- Field 50
   1499     Until: 17:00,            !- Field 51
   1500     1,                       !- Field 52
   1501     Until: 24:00,            !- Field 53
   1502     0,                       !- Field 54
   1503     For: Weekends,           !- Field 55
   1504     Until: 24:00,            !- Field 56
   1505     0,                       !- Field 57
   1506     For: Holidays,           !- Field 58
   1507     Until: 24:00,            !- Field 59
   1508     0,                       !- Field 60
   1509     For: WinterDesignDay AllOtherDays,  !- Field 61
   1510     Until: 24:00,            !- Field 62
   1511     0,                       !- Field 63
   1512     Through: 05 Jun,         !- Field 64
   1513     For: AllDays,            !- Field 65
   1514     Until: 24:00,            !- Field 66
   1515     0,                       !- Field 67
   1516     Through: 24 Jul,         !- Field 68
   1517     For: Weekdays SummerDesignDay,  !- Field 69
   1518     Until: 08:00,            !- Field 70
   1519     0,                       !- Field 71
   1520     Until: 17:00,            !- Field 72
   1521     1,                       !- Field 73
   1522     Until: 24:00,            !- Field 74
   1523     0,                       !- Field 75
   1524     For: Weekends,           !- Field 76
   1525     Until: 24:00,            !- Field 77
   1526     0,                       !- Field 78
   1527     For: Holidays,           !- Field 79
   1528     Until: 24:00,            !- Field 80
   1529     0,                       !- Field 81
   1530     For: WinterDesignDay AllOtherDays,  !- Field 82
   1531     Until: 24:00,            !- Field 83
   1532     0,                       !- Field 84
   1533     Through: 04 Sep,         !- Field 85
   1534     For: AllDays,            !- Field 86
   1535     Until: 24:00,            !- Field 87
   1536     0,                       !- Field 88
   1537     Through: 23 Oct,         !- Field 89
   1538     For: Weekdays SummerDesignDay,  !- Field 90
   1539     Until: 08:00,            !- Field 91
   1540     0,                       !- Field 92
   1541     Until: 17:00,            !- Field 93
   1542     1,                       !- Field 94
   1543     Until: 24:00,            !- Field 95
   1544     0,                       !- Field 96
   1545     For: Weekends,           !- Field 97
   1546     Until: 24:00,            !- Field 98
   1547     0,                       !- Field 99
   1548     For: Holidays,           !- Field 100
   1549     Until: 24:00,            !- Field 101
   1550     0,                       !- Field 102
   1551     For: WinterDesignDay AllOtherDays,  !- Field 103
   1552     Until: 24:00,            !- Field 104
   1553     0,                       !- Field 105
   1554     Through: 30 Oct,         !- Field 106
   1555     For: AllDays,            !- Field 107
   1556     Until: 24:00,            !- Field 108
   1557     0,                       !- Field 109
   1558     Through: 22 Dec,         !- Field 110
   1559     For: Weekdays SummerDesignDay,  !- Field 111
   1560     Until: 08:00,            !- Field 112
   1561     0,                       !- Field 113
   1562     Until: 17:00,            !- Field 114
   1563     1,                       !- Field 115
   1564     Until: 24:00,            !- Field 116
   1565     0,                       !- Field 117
   1566     For: Weekends,           !- Field 118
   1567     Until: 24:00,            !- Field 119
   1568     0,                       !- Field 120
   1569     For: Holidays,           !- Field 121
   1570     Until: 24:00,            !- Field 122
   1571     0,                       !- Field 123
   1572     For: WinterDesignDay AllOtherDays,  !- Field 124
   1573     Until: 24:00,            !- Field 125
   1574     0,                       !- Field 126
   1575     Through: 31 Dec,         !- Field 127
   1576     For: AllDays,            !- Field 128
   1577     Until: 24:00,            !- Field 129
   1578     0;                       !- Field 130
   1579 
   1580 ! Schedule: PrmSchl_Circulation_Equip
   1581 Schedule:Compact,
   1582     1205,                    !- Name
   1583     Fraction,                !- Schedule Type Limits Name
   1584     Through: 09 Jan,         !- Field 1
   1585     For: AllDays,            !- Field 2
   1586     Until: 24:00,            !- Field 3
   1587     0.05,                    !- Field 4
   1588     Through: 13 Feb,         !- Field 5
   1589     For: Weekdays SummerDesignDay,  !- Field 6
   1590     Until: 08:00,            !- Field 7
   1591     0.05,                    !- Field 8
   1592     Until: 17:00,            !- Field 9
   1593     1,                       !- Field 10
   1594     Until: 24:00,            !- Field 11
   1595     0.05,                    !- Field 12
   1596     For: Weekends,           !- Field 13
   1597     Until: 24:00,            !- Field 14
   1598     0.05,                    !- Field 15
   1599     For: Holidays,           !- Field 16
   1600     Until: 24:00,            !- Field 17
   1601     0.05,                    !- Field 18
   1602     For: WinterDesignDay AllOtherDays,  !- Field 19
   1603     Until: 24:00,            !- Field 20
   1604     0,                       !- Field 21
   1605     Through: 20 Feb,         !- Field 22
   1606     For: AllDays,            !- Field 23
   1607     Until: 24:00,            !- Field 24
   1608     0.05,                    !- Field 25
   1609     Through: 20 Mar,         !- Field 26
   1610     For: Weekdays SummerDesignDay,  !- Field 27
   1611     Until: 08:00,            !- Field 28
   1612     0.05,                    !- Field 29
   1613     Until: 17:00,            !- Field 30
   1614     1,                       !- Field 31
   1615     Until: 24:00,            !- Field 32
   1616     0.05,                    !- Field 33
   1617     For: Weekends,           !- Field 34
   1618     Until: 24:00,            !- Field 35
   1619     0.05,                    !- Field 36
   1620     For: Holidays,           !- Field 37
   1621     Until: 24:00,            !- Field 38
[...]
  33288 
  33289 ZoneHVAC:EquipmentList,
  33290     Zone 120650 Equipment,   !- Name
  33291     ZoneHVAC:IdealLoadsAirSystem,  !- Zone Equipment 1 Object Type
  33292     Zone 120650 Ideal Loads Air,  !- Zone Equipment 1 Name
  33293     1,                       !- Zone Equipment 1 Cooling Sequence
  33294     1;                       !- Zone Equipment 1 Heating or No-Load Sequence
  33295 
  33296 ZoneHVAC:EquipmentList,
  33297     Zone 120659 Equipment,   !- Name
  33298     ZoneHVAC:IdealLoadsAirSystem,  !- Zone Equipment 1 Object Type
  33299     Zone 120659 Ideal Loads Air,  !- Zone Equipment 1 Name
  33300     1,                       !- Zone Equipment 1 Cooling Sequence
  33301     1;                       !- Zone Equipment 1 Heating or No-Load Sequence
  33302 
  33303 ZoneHVAC:EquipmentList,
  33304     Zone 120668 Equipment,   !- Name
  33305     ZoneHVAC:IdealLoadsAirSystem,  !- Zone Equipment 1 Object Type
  33306     Zone 120668 Ideal Loads Air,  !- Zone Equipment 1 Name
  33307     1,                       !- Zone Equipment 1 Cooling Sequence
  33308     1;                       !- Zone Equipment 1 Heating or No-Load Sequence
  33309 
  33310 ZoneHVAC:EquipmentList,
  33311     Zone 120681 Equipment,   !- Name
  33312     ZoneHVAC:IdealLoadsAirSystem,  !- Zone Equipment 1 Object Type
  33313     Zone 120681 Ideal Loads Air,  !- Zone Equipment 1 Name
  33314     1,                       !- Zone Equipment 1 Cooling Sequence
  33315     1;                       !- Zone Equipment 1 Heating or No-Load Sequence
  33316 
  33317 ZoneHVAC:EquipmentList,
  33318     Zone 120475 Equipment,   !- Name
  33319     ZoneHVAC:IdealLoadsAirSystem,  !- Zone Equipment 1 Object Type
  33320     Zone 120475 Ideal Loads Air,  !- Zone Equipment 1 Name
  33321     1,                       !- Zone Equipment 1 Cooling Sequence
  33322     1;                       !- Zone Equipment 1 Heating or No-Load Sequence
  33323 
  33324 ZoneHVAC:EquipmentList,
  33325     Zone 120484 Equipment,   !- Name
  33326     ZoneHVAC:IdealLoadsAirSystem,  !- Zone Equipment 1 Object Type
  33327     Zone 120484 Ideal Loads Air,  !- Zone Equipment 1 Name
  33328     1,                       !- Zone Equipment 1 Cooling Sequence
  33329     1;                       !- Zone Equipment 1 Heating or No-Load Sequence
  33330 
  33331 ZoneHVAC:EquipmentList,
  33332     Zone 120497 Equipment,   !- Name
  33333     ZoneHVAC:IdealLoadsAirSystem,  !- Zone Equipment 1 Object Type
  33334     Zone 120497 Ideal Loads Air,  !- Zone Equipment 1 Name
  33335     1,                       !- Zone Equipment 1 Cooling Sequence
  33336     1;                       !- Zone Equipment 1 Heating or No-Load Sequence
  33337 
  33338 ZoneHVAC:EquipmentList,
  33339     Zone 120506 Equipment,   !- Name
  33340     ZoneHVAC:IdealLoadsAirSystem,  !- Zone Equipment 1 Object Type
  33341     Zone 120506 Ideal Loads Air,  !- Zone Equipment 1 Name
  33342     1,                       !- Zone Equipment 1 Cooling Sequence
  33343     1;                       !- Zone Equipment 1 Heating or No-Load Sequence
  33344 
  33345 ZoneHVAC:EquipmentList,
  33346     Zone 120515 Equipment,   !- Name
  33347     ZoneHVAC:IdealLoadsAirSystem,  !- Zone Equipment 1 Object Type
  33348     Zone 120515 Ideal Loads Air,  !- Zone Equipment 1 Name
  33349     1,                       !- Zone Equipment 1 Cooling Sequence
  33350     1;                       !- Zone Equipment 1 Heating or No-Load Sequence
  33351 
  33352 
  33353 !-   ===========  ALL OBJECTS IN CLASS: ZONEHVAC:EQUIPMENTCONNECTIONS ===========
  33354 
  33355 ZoneHVAC:EquipmentConnections,
  33356     118363,                  !- Zone Name
  33357     Zone 118363 Equipment,   !- Zone Conditioning Equipment List Name
  33358     Zone 118363 Inlets,      !- Zone Air Inlet Node or NodeList Name
  33359     ,                        !- Zone Air Exhaust Node or NodeList Name
  33360     Node 118363 Zone,        !- Zone Air Node Name
  33361     Node 118363 Out;         !- Zone Return Air Node Name
  33362 
  33363 ZoneHVAC:EquipmentConnections,
  33364     118439,                  !- Zone Name
  33365     Zone 118439 Equipment,   !- Zone Conditioning Equipment List Name
  33366     Zone 118439 Inlets,      !- Zone Air Inlet Node or NodeList Name
  33367     ,                        !- Zone Air Exhaust Node or NodeList Name
  33368     Node 118439 Zone,        !- Zone Air Node Name
  33369     Node 118439 Out;         !- Zone Return Air Node Name
  33370 
  33371 ZoneHVAC:EquipmentConnections,
  33372     118453,                  !- Zone Name
  33373     Zone 118453 Equipment,   !- Zone Conditioning Equipment List Name
  33374     Zone 118453 Inlets,      !- Zone Air Inlet Node or NodeList Name
  33375     ,                        !- Zone Air Exhaust Node or NodeList Name
  33376     Node 118453 Zone,        !- Zone Air Node Name
  33377     Node 118453 Out;         !- Zone Return Air Node Name
  33378 
  33379 ZoneHVAC:EquipmentConnections,
  33380     118460,                  !- Zone Name
  33381     Zone 118460 Equipment,   !- Zone Conditioning Equipment List Name
  33382     Zone 118460 Inlets,      !- Zone Air Inlet Node or NodeList Name
  33383     ,                        !- Zone Air Exhaust Node or NodeList Name
  33384     Node 118460 Zone,        !- Zone Air Node Name
  33385     Node 118460 Out;         !- Zone Return Air Node Name
  33386 
  33387 ZoneHVAC:EquipmentConnections,
  33388     118474,                  !- Zone Name
  33389     Zone 118474 Equipment,   !- Zone Conditioning Equipment List Name
  33390     Zone 118474 Inlets,      !- Zone Air Inlet Node or NodeList Name
  33391     ,                        !- Zone Air Exhaust Node or NodeList Name
  33392     Node 118474 Zone,        !- Zone Air Node Name
  33393     Node 118474 Out;         !- Zone Return Air Node Name
  33394 
  33395 ZoneHVAC:EquipmentConnections,
  33396     118481,                  !- Zone Name
  33397     Zone 118481 Equipment,   !- Zone Conditioning Equipment List Name
  33398     Zone 118481 Inlets,      !- Zone Air Inlet Node or NodeList Name
  33399     ,                        !- Zone Air Exhaust Node or NodeList Name
  33400     Node 118481 Zone,        !- Zone Air Node Name
  33401     Node 118481 Out;         !- Zone Return Air Node Name
  33402 
  33403 ZoneHVAC:EquipmentConnections,
  33404     118488,                  !- Zone Name
  33405     Zone 118488 Equipment,   !- Zone Conditioning Equipment List Name
  33406     Zone 118488 Inlets,      !- Zone Air Inlet Node or NodeList Name
  33407     ,                        !- Zone Air Exhaust Node or NodeList Name
  33408     Node 118488 Zone,        !- Zone Air Node Name
  33409     Node 118488 Out;         !- Zone Return Air Node Name
  33410 
  33411 ZoneHVAC:EquipmentConnections,
  33412     120605,                  !- Zone Name
  33413     Zone 120605 Equipment,   !- Zone Conditioning Equipment List Name
  33414     Zone 120605 Inlets,      !- Zone Air Inlet Node or NodeList Name
  33415     ,                        !- Zone Air Exhaust Node or NodeList Name
  33416     Node 120605 Zone,        !- Zone Air Node Name
  33417     Node 120605 Out;         !- Zone Return Air Node Name
  33418 
  33419 ZoneHVAC:EquipmentConnections,
  33420     120623,                  !- Zone Name
  33421     Zone 120623 Equipment,   !- Zone Conditioning Equipment List Name
  33422     Zone 120623 Inlets,      !- Zone Air Inlet Node or NodeList Name
  33423     ,                        !- Zone Air Exhaust Node or NodeList Name
  33424     Node 120623 Zone,        !- Zone Air Node Name
  33425     Node 120623 Out;         !- Zone Return Air Node Name
  33426 
  33427 ZoneHVAC:EquipmentConnections,
  33428     120632,                  !- Zone Name
  33429     Zone 120632 Equipment,   !- Zone Conditioning Equipment List Name
  33430     Zone 120632 Inlets,      !- Zone Air Inlet Node or NodeList Name
  33431     ,                        !- Zone Air Exhaust Node or NodeList Name
  33432     Node 120632 Zone,        !- Zone Air Node Name
  33433     Node 120632 Out;         !- Zone Return Air Node Name
  33434 
  33435 ZoneHVAC:EquipmentConnections,
  33436     120641,                  !- Zone Name
  33437     Zone 120641 Equipment,   !- Zone Conditioning Equipment List Name
  33438     Zone 120641 Inlets,      !- Zone Air Inlet Node or NodeList Name
  33439     ,                        !- Zone Air Exhaust Node or NodeList Name
  33440     Node 120641 Zone,        !- Zone Air Node Name
  33441     Node 120641 Out;         !- Zone Return Air Node Name
  33442 
  33443 ZoneHVAC:EquipmentConnections,
  33444     120650,                  !- Zone Name
  33445     Zone 120650 Equipment,   !- Zone Conditioning Equipment List Name
  33446     Zone 120650 Inlets,      !- Zone Air Inlet Node or NodeList Name
  33447     ,                        !- Zone Air Exhaust Node or NodeList Name
  33448     Node 120650 Zone,        !- Zone Air Node Name
  33449     Node 120650 Out;         !- Zone Return Air Node Name
  33450 
  33451 ZoneHVAC:EquipmentConnections,
  33452     120659,                  !- Zone Name
  33453     Zone 120659 Equipment,   !- Zone Conditioning Equipment List Name
  33454     Zone 120659 Inlets,      !- Zone Air Inlet Node or NodeList Name
  33455     ,                        !- Zone Air Exhaust Node or NodeList Name
  33456     Node 120659 Zone,        !- Zone Air Node Name
  33457     Node 120659 Out;         !- Zone Return Air Node Name
  33458 
  33459 ZoneHVAC:EquipmentConnections,
  33460     120668,                  !- Zone Name
  33461     Zone 120668 Equipment,   !- Zone Conditioning Equipment List Name
  33462     Zone 120668 Inlets,      !- Zone Air Inlet Node or NodeList Name
  33463     ,                        !- Zone Air Exhaust Node or NodeList Name
  33464     Node 120668 Zone,        !- Zone Air Node Name
  33465     Node 120668 Out;         !- Zone Return Air Node Name
  33466 
  33467 ZoneHVAC:EquipmentConnections,
  33468     120681,                  !- Zone Name
  33469     Zone 120681 Equipment,   !- Zone Conditioning Equipment List Name
  33470     Zone 120681 Inlets,      !- Zone Air Inlet Node or NodeList Name
  33471     ,                        !- Zone Air Exhaust Node or NodeList Name
  33472     Node 120681 Zone,        !- Zone Air Node Name
  33473     Node 120681 Out;         !- Zone Return Air Node Name
  33474 
  33475 ZoneHVAC:EquipmentConnections,
  33476     120475,                  !- Zone Name
  33477     Zone 120475 Equipment,   !- Zone Conditioning Equipment List Name
  33478     Zone 120475 Inlets,      !- Zone Air Inlet Node or NodeList Name
  33479     ,                        !- Zone Air Exhaust Node or NodeList Name
  33480     Node 120475 Zone,        !- Zone Air Node Name
  33481     Node 120475 Out;         !- Zone Return Air Node Name
  33482 
  33483 ZoneHVAC:EquipmentConnections,
  33484     120484,                  !- Zone Name
  33485     Zone 120484 Equipment,   !- Zone Conditioning Equipment List Name
  33486     Zone 120484 Inlets,      !- Zone Air Inlet Node or NodeList Name
  33487     ,                        !- Zone Air Exhaust Node or NodeList Name
  33488     Node 120484 Zone,        !- Zone Air Node Name
  33489     Node 120484 Out;         !- Zone Return Air Node Name
  33490 
  33491 ZoneHVAC:EquipmentConnections,
  33492     120497,                  !- Zone Name
  33493     Zone 120497 Equipment,   !- Zone Conditioning Equipment List Name
  33494     Zone 120497 Inlets,      !- Zone Air Inlet Node or NodeList Name
  33495     ,                        !- Zone Air Exhaust Node or NodeList Name
  33496     Node 120497 Zone,        !- Zone Air Node Name
  33497     Node 120497 Out;         !- Zone Return Air Node Name
  33498 
  33499 ZoneHVAC:EquipmentConnections,
  33500     120506,                  !- Zone Name
  33501     Zone 120506 Equipment,   !- Zone Conditioning Equipment List Name
  33502     Zone 120506 Inlets,      !- Zone Air Inlet Node or NodeList Name
  33503     ,                        !- Zone Air Exhaust Node or NodeList Name
  33504     Node 120506 Zone,        !- Zone Air Node Name
  33505     Node 120506 Out;         !- Zone Return Air Node Name
  33506 
  33507 ZoneHVAC:EquipmentConnections,
  33508     120515,                  !- Zone Name
  33509     Zone 120515 Equipment,   !- Zone Conditioning Equipment List Name
  33510     Zone 120515 Inlets,      !- Zone Air Inlet Node or NodeList Name
  33511     ,                        !- Zone Air Exhaust Node or NodeList Name
  33512     Node 120515 Zone,        !- Zone Air Node Name
  33513     Node 120515 Out;         !- Zone Return Air Node Name
  33514 
  33515 
  33516 !-   ===========  ALL OBJECTS IN CLASS: NODELIST ===========
  33517 
  33518 NodeList,
  33519     Zone 118363 Inlets,      !- Name
  33520     Node 118363 In;          !- Node 1 Name
  33521 
  33522 NodeList,
  33523     Zone 118439 Inlets,      !- Name
  33524     Node 118439 In;          !- Node 1 Name
  33525 
  33526 NodeList,
  33527     Zone 118453 Inlets,      !- Name
  33528     Node 118453 In;          !- Node 1 Name
  33529 
  33530 NodeList,
  33531     Zone 118460 Inlets,      !- Name
  33532     Node 118460 In;          !- Node 1 Name
  33533 
  33534 NodeList,
  33535     Zone 118474 Inlets,      !- Name
  33536     Node 118474 In;          !- Node 1 Name
  33537 
  33538 NodeList,
  33539     Zone 118481 Inlets,      !- Name
  33540     Node 118481 In;          !- Node 1 Name
  33541 
  33542 NodeList,
  33543     Zone 118488 Inlets,      !- Name
  33544     Node 118488 In;          !- Node 1 Name
  33545 
  33546 NodeList,
  33547     Zone 120605 Inlets,      !- Name
  33548     Node 120605 In;          !- Node 1 Name
  33549 
  33550 NodeList,
  33551     Zone 120623 Inlets,      !- Name
  33552     Node 120623 In;          !- Node 1 Name
  33553 
  33554 NodeList,
  33555     Zone 120632 Inlets,      !- Name
  33556     Node 120632 In;          !- Node 1 Name
  33557 
  33558 NodeList,
  33559     Zone 120641 Inlets,      !- Name
  33560     Node 120641 In;          !- Node 1 Name
  33561 
  33562 NodeList,
  33563     Zone 120650 Inlets,      !- Name
  33564     Node 120650 In;          !- Node 1 Name
  33565 
  33566 NodeList,
  33567     Zone 120659 Inlets,      !- Name
  33568     Node 120659 In;          !- Node 1 Name
  33569 
  33570 NodeList,
  33571     Zone 120668 Inlets,      !- Name
  33572     Node 120668 In;          !- Node 1 Name
  33573 
  33574 NodeList,
  33575     Zone 120681 Inlets,      !- Name
  33576     Node 120681 In;          !- Node 1 Name
  33577 
  33578 NodeList,
  33579     Zone 120475 Inlets,      !- Name
  33580     Node 120475 In;          !- Node 1 Name
  33581 
  33582 NodeList,
  33583     Zone 120484 Inlets,      !- Name
  33584     Node 120484 In;          !- Node 1 Name
  33585 
  33586 NodeList,
  33587     Zone 120497 Inlets,      !- Name
  33588     Node 120497 In;          !- Node 1 Name
  33589 
  33590 NodeList,
  33591     Zone 120506 Inlets,      !- Name
  33592     Node 120506 In;          !- Node 1 Name
  33593 
  33594 NodeList,
  33595     Zone 120515 Inlets,      !- Name
  33596     Node 120515 In;          !- Node 1 Name
  33597 
  33598 
  33599 !-   ===========  ALL OBJECTS IN CLASS: WATERUSE:EQUIPMENT ===========
  33600 
  33601 ! DHW 1
  33602 WaterUse:Equipment,
  33603     DHW 118446,              !- Name
  33604     DHW 118446,              !- End-Use Subcategory
  33605     0.000001477265625,       !- Peak Flow Rate {m3/s}
  33606     140,                     !- Flow Rate Fraction Schedule Name
  33607     DHW Supply Temperature 118446,  !- Target Temperature Schedule Name
  33608     DHW Supply Temperature 118446,  !- Hot Water Supply Temperature Schedule Name
  33609     DHW Mains Temperature 118446,  !- Cold Water Supply Temperature Schedule Name
  33610     118446;                  !- Zone Name
  33611 
  33612 
  33613 !-   ===========  ALL OBJECTS IN CLASS: OUTPUT:VARIABLEDICTIONARY ===========
  33614 
  33615 Output:VariableDictionary,
  33616     Regular;                 !- Key Field
  33617 
  33618 
  33619 !-   ===========  ALL OBJECTS IN CLASS: OUTPUT:TABLE:SUMMARYREPORTS ===========
  33620 
  33621 Output:Table:SummaryReports,
  33622     AllSummaryAndMonthly;    !- Report 1 Name
  33623 
  33624 
  33625 !-   ===========  ALL OBJECTS IN CLASS: OUTPUTCONTROL:TABLE:STYLE ===========
  33626 
  33627 OutputControl:Table:Style,
  33628     TabAndHTML;              !- Column Separator
  33629 
  33630 
  33631 !-   ===========  ALL OBJECTS IN CLASS: OUTPUT:VARIABLE ===========
  33632 
  33633 Output:Variable,
  33634     *,                       !- Key Value
  33635     Zone Air System Sensible Heating Energy,  !- Variable Name
  33636     Annual;                  !- Reporting Frequency
  33637 
  33638 Output:Variable,
  33639     *,                       !- Key Value
  33640     Zone Air System Sensible Cooling Energy,  !- Variable Name
  33641     Annual;                  !- Reporting Frequency
  33642 
  33643 Output:Variable,
  33644     *,                       !- Key Value
  33645     Zone Thermal Comfort Fanger Model PPD,  !- Variable Name
  33646     Annual;                  !- Reporting Frequency
  33647 
  33648 
  33649 !-   ===========  ALL OBJECTS IN CLASS: OUTPUT:DIAGNOSTICS ===========
  33650 
  33651 Output:Diagnostics,
  33652     DisplayAdvancedReportVariables;  !- Key 1
  33653 
  Processing Input Data File (in.idf) -- Complete
  Maximum number of Alpha IDF Args=         330
  Maximum number of Numeric IDF Args=          98
  Number of IDF "Lines"=        1169
  Number of Defaulted Fields=         274
  Number of Fields with Defaults=        4360
  Number of Autosized Fields=           0
  Number of Autosizable Fields =          80
  Number of Autocalculated Fields=          93
  Number of Autocalculatable Fields =        1198
 Getting object=VERSION
 Getting object=HEATBALANCEALGORITHM
 Getting object=TIMESTEP
 Getting object=CONVERGENCELIMITS
 Getting object=OUTPUT:DIAGNOSTICS
 Getting object=SIMULATIONCONTROL
 Getting object=OUTPUT:VARIABLEDICTIONARY
 Getting object=OUTPUT:TABLE:SUMMARYREPORTS
 Getting object=OUTPUT:VARIABLE
 Getting object=RUNPERIOD
 Getting object=RUNPERIODCONTROL:SPECIALDAYS
 Getting object=SITE:LOCATION
 Getting object=SITE:GROUNDTEMPERATURE:BUILDINGSURFACE
 Getting object=SITE:GROUNDREFLECTANCE
 Getting object=SITE:GROUNDREFLECTANCE:SNOWMODIFIER
 Getting object=SCHEDULE:COMPACT
  Processing Schedule Input -- Start
 Getting object=SCHEDULETYPELIMITS
 Getting object=SCHEDULE:DAY:HOURLY
 Getting object=SCHEDULE:WEEK:DAILY
 Getting object=SCHEDULE:YEAR
  Processing Schedule Input -- Complete
 Getting object=BUILDING
 Getting object=SURFACECONVECTIONALGORITHM:INSIDE
 Getting object=SURFACECONVECTIONALGORITHM:OUTSIDE
 Getting object=MATERIAL
 Getting object=WINDOWMATERIAL:GLAZING
 Getting object=WINDOWMATERIAL:GAS
 Getting object=WINDOWMATERIAL:BLIND
 Getting object=MATERIAL:ROOFVEGETATION
 Getting object=WINDOWPROPERTY:FRAMEANDDIVIDER
 Getting object=CONSTRUCTION
 Getting object=ZONE
 Getting object=GLOBALGEOMETRYRULES
 Getting object=BUILDINGSURFACE:DETAILED
 Getting object=WINDOWPROPERTY:SHADINGCONTROL
 Getting object=FENESTRATIONSURFACE:DETAILED
 Getting object=PEOPLE
 Getting object=LIGHTS
 Getting object=ELECTRICEQUIPMENT
 Getting object=SHADOWCALCULATION
 Getting object=ZONEINFILTRATION:DESIGNFLOWRATE
 Getting object=ZONEVENTILATION:DESIGNFLOWRATE
 Getting object=ZONECONTROL:THERMOSTAT
 Getting object=THERMOSTATSETPOINT:DUALSETPOINT
 Getting object=ZONECAPACITANCEMULTIPLIER:RESEARCHSPECIAL
 Getting object=NODELIST
 Getting object=ZONEHVAC:EQUIPMENTCONNECTIONS
 Getting object=ZONEHVAC:EQUIPMENTLIST
 Getting object=ZONEHVAC:IDEALLOADSAIRSYSTEM
 Getting object=WATERUSE:EQUIPMENT
 Getting object=OUTPUTCONTROL:TABLE:STYLE
